Version 4.1
SHEET 1 3512 2068
WIRE -1200 480 -1216 480
WIRE -1088 480 -1200 480
WIRE -912 480 -1088 480
WIRE -784 480 -912 480
WIRE -544 480 -784 480
WIRE -1376 528 -1488 528
WIRE -1344 528 -1376 528
WIRE -1088 528 -1088 480
WIRE -912 528 -912 480
WIRE -784 528 -784 480
WIRE -1216 544 -1216 480
WIRE -544 544 -544 480
WIRE -1488 576 -1488 528
WIRE -1344 592 -1344 528
WIRE -1216 640 -1216 624
WIRE -1088 656 -1088 608
WIRE -992 656 -1088 656
WIRE -944 656 -992 656
WIRE -640 656 -752 656
WIRE -544 656 -544 624
WIRE -544 656 -640 656
WIRE -1488 672 -1488 656
WIRE -1424 672 -1488 672
WIRE -1408 672 -1424 672
WIRE -1088 736 -1088 656
WIRE -1040 736 -1088 736
WIRE -912 736 -912 608
WIRE -912 736 -976 736
WIRE -800 736 -912 736
WIRE -784 736 -784 608
WIRE -672 736 -784 736
WIRE -544 736 -544 656
WIRE -544 736 -608 736
WIRE -784 752 -784 736
WIRE -784 752 -832 752
WIRE -1088 768 -1088 736
WIRE -544 768 -544 736
WIRE -976 816 -1024 816
WIRE -928 816 -976 816
WIRE -832 816 -832 752
WIRE -832 816 -864 816
WIRE -800 816 -800 736
WIRE -768 816 -800 816
WIRE -640 816 -704 816
WIRE -608 816 -640 816
WIRE -640 864 -640 816
WIRE -976 880 -976 816
WIRE -1408 896 -1488 896
WIRE -1360 896 -1408 896
WIRE -1360 912 -1360 896
WIRE -1088 912 -1088 864
WIRE -544 912 -544 864
WIRE -1488 928 -1488 896
WIRE -976 960 -976 944
WIRE -880 960 -976 960
WIRE -784 960 -816 960
WIRE -768 960 -784 960
WIRE -640 960 -640 928
WIRE -640 960 -704 960
WIRE -1488 1024 -1488 1008
WIRE -1424 1024 -1488 1024
WIRE -1408 1024 -1424 1024
WIRE -976 1040 -976 960
WIRE -976 1040 -1168 1040
WIRE -1952 1200 -1984 1200
WIRE -1744 1200 -1952 1200
WIRE -1984 1248 -1984 1200
WIRE -1744 1264 -1744 1200
WIRE -1744 1376 -1744 1344
WIRE -1744 1376 -1824 1376
WIRE -1744 1392 -1744 1376
WIRE -784 1392 -784 960
WIRE -784 1392 -1744 1392
WIRE -2064 1424 -2096 1424
WIRE -1984 1424 -1984 1328
WIRE -1984 1424 -2000 1424
WIRE -1968 1424 -1984 1424
WIRE -1888 1424 -1904 1424
WIRE -1456 1456 -1488 1456
WIRE -1248 1456 -1456 1456
WIRE -912 1456 -944 1456
WIRE -704 1456 -912 1456
WIRE -1488 1504 -1488 1456
WIRE -944 1504 -944 1456
WIRE -1248 1520 -1248 1456
WIRE -704 1520 -704 1456
WIRE -1824 1568 -1824 1472
WIRE -704 1632 -704 1600
WIRE -704 1632 -784 1632
WIRE -640 1632 -640 960
WIRE -640 1632 -704 1632
WIRE -1248 1680 -1248 1600
WIRE -1248 1680 -1328 1680
WIRE -1168 1680 -1168 1040
WIRE -1168 1680 -1248 1680
WIRE -1040 1680 -1168 1680
WIRE -944 1680 -944 1584
WIRE -944 1680 -976 1680
WIRE -928 1680 -944 1680
WIRE -848 1680 -864 1680
WIRE -1568 1728 -1600 1728
WIRE -1488 1728 -1488 1584
WIRE -1488 1728 -1504 1728
WIRE -1472 1728 -1488 1728
WIRE -1392 1728 -1408 1728
WIRE -784 1824 -784 1728
WIRE -1328 1872 -1328 1776
FLAG -1360 992 0
FLAG -1344 672 0
FLAG -544 912 0
FLAG -1088 912 0
FLAG -1216 640 0
FLAG -1200 480 Vcc
FLAG -1376 528 Data
FLAG -2096 1424 Clk
FLAG -640 656 Qn_out
FLAG -992 656 Q_out
FLAG -1488 752 0
FLAG -1424 672 data_1
FLAG -1488 1104 0
FLAG -1424 1024 Clk_1
FLAG -1408 896 Clk
FLAG -1952 1200 Vcc
FLAG -1824 1568 0
FLAG -1600 1728 Qn_out
FLAG -1456 1456 Vcc
FLAG -1328 1872 0
FLAG -912 1456 Vcc
FLAG -784 1824 0
SYMBOL voltage -1360 896 R0
WINDOW 123 0 0 Left 0
WINDOW 39 0 0 Left 0
WINDOW 0 -66 57 Left 2
WINDOW 3 -161 -62 Left 2
SYMATTR InstName V1
SYMATTR Value PULSE(0 5 0 10n 10n 200n 400n 0)
SYMBOL npn -608 768 R0
SYMATTR InstName Q2
SYMBOL npn -1024 768 M0
SYMATTR InstName Q4
SYMBOL voltage -1216 528 R0
WINDOW 123 0 0 Left 0
WINDOW 39 0 0 Left 0
SYMATTR InstName V4
SYMATTR Value 5
SYMBOL npn -1888 1376 R0
SYMATTR InstName Q5
SYMBOL voltage -1344 576 R0
WINDOW 123 0 0 Left 0
WINDOW 39 0 0 Left 0
WINDOW 0 -53 -3 Left 2
WINDOW 3 -275 -99 Left 2
SYMATTR InstName V2
SYMATTR Value PULSE(0 5 0 10n 10n 10u 20u 0)
SYMBOL res -1072 512 M0
SYMATTR InstName R3
SYMATTR Value 1K8
SYMBOL res -528 528 M0
SYMATTR InstName R4
SYMATTR Value 1K8
SYMBOL res -1472 656 M0
SYMATTR InstName R5
SYMATTR Value 4K
SYMBOL res -1472 560 M0
SYMATTR InstName R8
SYMATTR Value 1k
SYMBOL res -1472 1008 M0
SYMATTR InstName R10
SYMATTR Value 3k
SYMBOL res -1472 912 M0
SYMATTR InstName R11
SYMATTR Value 2k
SYMBOL LED -864 800 R90
WINDOW 0 0 32 VBottom 2
WINDOW 3 72 32 VTop 2
SYMATTR InstName D1
SYMATTR Value NSPW500BS
SYMBOL LED -768 832 R270
WINDOW 0 72 32 VTop 2
WINDOW 3 0 32 VBottom 2
SYMATTR InstName D2
SYMATTR Value NSPW500BS
SYMBOL diode -976 720 R90
WINDOW 0 0 32 VBottom 2
WINDOW 3 32 32 VTop 2
SYMATTR InstName D3
SYMATTR Value 1N4148
SYMBOL diode -672 752 R270
WINDOW 0 32 32 VTop 2
WINDOW 3 0 32 VBottom 2
SYMATTR InstName D4
SYMATTR Value 1N4148
SYMBOL res -928 512 R0
SYMATTR InstName R2
SYMATTR Value 3K4
SYMBOL res -800 512 R0
SYMATTR InstName R6
SYMATTR Value 3K4
SYMBOL diode -992 880 R0
SYMATTR InstName D5
SYMATTR Value 1N4148
SYMBOL diode -656 864 R0
SYMATTR InstName D6
SYMATTR Value 1N4148
SYMBOL cap -880 976 R270
WINDOW 0 32 32 VTop 2
WINDOW 3 0 32 VBottom 2
SYMATTR InstName C1
SYMATTR Value 100p
SYMBOL cap -768 976 R270
WINDOW 0 32 32 VTop 2
WINDOW 3 0 32 VBottom 2
SYMATTR InstName C2
SYMATTR Value 100p
SYMBOL diode -2000 1408 R90
WINDOW 0 0 32 VBottom 2
WINDOW 3 32 32 VTop 2
SYMATTR InstName D7
SYMATTR Value 1N4148
SYMBOL LED -1968 1440 R270
WINDOW 0 72 32 VTop 2
WINDOW 3 0 32 VBottom 2
SYMATTR InstName D8
SYMATTR Value NSPW500BS
SYMBOL res -1728 1248 M0
SYMATTR InstName R1
SYMATTR Value 1K8
SYMBOL res -2000 1232 R0
SYMATTR InstName R7
SYMATTR Value 3K4
SYMBOL npn -1392 1680 R0
SYMATTR InstName Q1
SYMBOL diode -1504 1712 R90
WINDOW 0 0 32 VBottom 2
WINDOW 3 32 32 VTop 2
SYMATTR InstName D9
SYMATTR Value 1N4148
SYMBOL LED -1472 1744 R270
WINDOW 0 72 32 VTop 2
WINDOW 3 0 32 VBottom 2
SYMATTR InstName D10
SYMATTR Value NSPW500BS
SYMBOL res -1232 1504 M0
SYMATTR InstName R9
SYMATTR Value 1K8
SYMBOL res -1504 1488 R0
SYMATTR InstName R12
SYMATTR Value 3K4
SYMBOL npn -848 1632 R0
SYMATTR InstName Q3
SYMBOL diode -976 1664 R90
WINDOW 0 0 32 VBottom 2
WINDOW 3 32 32 VTop 2
SYMATTR InstName D11
SYMATTR Value 1N4148
SYMBOL LED -928 1696 R270
WINDOW 0 72 32 VTop 2
WINDOW 3 0 32 VBottom 2
SYMATTR InstName D12
SYMATTR Value NSPW500BS
SYMBOL res -688 1504 M0
SYMATTR InstName R13
SYMATTR Value 1K8
SYMBOL res -960 1488 R0
SYMATTR InstName R14
SYMATTR Value 3K4
TEXT -576 1104 Left 4 !.tran 0 80u 0
TEXT -1496 344 Left 3 ;Resistor dividers for data_1 and Clk_1 are for waveform display only
