Version 4.1
SHEET 1 4724 2036
WIRE 2336 -592 2208 -592
WIRE 2400 -592 2336 -592
WIRE 2432 -592 2400 -592
WIRE 2336 -560 2336 -592
WIRE 2208 -544 2208 -592
WIRE 2208 -464 2208 -480
WIRE 2336 -464 2336 -480
WIRE 2336 -464 2208 -464
WIRE 2336 -448 2336 -464
WIRE 2304 -352 2208 -352
WIRE 2208 -320 2208 -352
WIRE 2960 -240 2928 -240
WIRE 3168 -240 2960 -240
WIRE 3792 -240 3168 -240
WIRE 2208 -208 2208 -240
WIRE 3168 -176 3168 -240
WIRE 3792 -176 3792 -240
WIRE 2304 -128 2208 -128
WIRE 2352 -128 2304 -128
WIRE 2208 -112 2208 -128
WIRE 2352 -112 2352 -128
WIRE 2800 -32 2688 -32
WIRE 2928 -32 2880 -32
WIRE 3168 -32 3168 -96
WIRE 3248 -32 3168 -32
WIRE 3280 -32 3248 -32
WIRE 3456 -32 3376 -32
WIRE 3552 -32 3536 -32
WIRE 3792 -32 3792 -96
WIRE 3856 -32 3792 -32
WIRE 3920 -32 3856 -32
WIRE 2208 0 2208 -32
WIRE 2352 0 2352 -32
WIRE 3168 16 3168 -32
WIRE 3792 16 3792 -32
WIRE 2768 64 2736 64
WIRE 2816 64 2768 64
WIRE 2928 64 2928 -32
WIRE 2928 64 2880 64
WIRE 2992 64 2928 64
WIRE 3104 64 3056 64
WIRE 3408 64 3360 64
WIRE 3440 64 3408 64
WIRE 3552 64 3552 -32
WIRE 3552 64 3504 64
WIRE 3616 64 3552 64
WIRE 3696 64 3680 64
WIRE 3728 64 3696 64
WIRE 2352 112 2352 80
WIRE 3696 128 3696 64
WIRE 3056 144 3056 64
WIRE 2672 160 2640 160
WIRE 2880 160 2672 160
WIRE 2640 224 2640 160
WIRE 2880 224 2880 160
WIRE 3168 240 3168 112
WIRE 3792 240 3792 112
WIRE 3056 256 3056 224
WIRE 3696 256 3696 208
WIRE 3264 320 3056 320
WIRE 3440 320 3328 320
WIRE 3568 320 3440 320
WIRE 3696 320 3632 320
WIRE 2880 384 2880 304
WIRE 3152 384 2880 384
WIRE 3440 384 3440 320
WIRE 3440 384 3152 384
WIRE 2880 416 2880 384
WIRE 2528 464 2480 464
WIRE 2576 464 2528 464
WIRE 2640 464 2640 304
WIRE 2704 464 2640 464
WIRE 2816 464 2768 464
WIRE 2880 544 2880 512
WIRE 2816 592 2768 592
WIRE 3008 592 2816 592
WIRE 3392 592 3008 592
WIRE 3632 592 3392 592
WIRE 2768 656 2768 592
WIRE 3008 656 3008 592
WIRE 3392 656 3392 592
WIRE 3632 656 3632 592
WIRE 3632 784 3632 736
WIRE 3696 784 3696 320
WIRE 3696 784 3632 784
WIRE 2528 800 2448 800
WIRE 2656 800 2528 800
WIRE 2768 800 2768 736
WIRE 2768 800 2720 800
WIRE 3008 800 3008 736
WIRE 3056 800 3056 320
WIRE 3056 800 3008 800
WIRE 3280 800 3056 800
WIRE 3392 800 3392 736
WIRE 3392 800 3344 800
WIRE 3008 848 3008 800
WIRE 3632 848 3632 784
WIRE 2768 896 2768 800
WIRE 2832 896 2768 896
WIRE 2944 896 2896 896
WIRE 3392 896 3392 800
WIRE 3456 896 3392 896
WIRE 3568 896 3520 896
WIRE 3008 976 3008 944
WIRE 3632 976 3632 944
FLAG 3008 976 0
FLAG 2336 -448 0
FLAG 2208 -208 0
FLAG 2400 -592 Vcc
FLAG 3632 976 0
FLAG 3168 240 0
FLAG 3792 240 0
FLAG 2960 -240 Vcc
FLAG 3856 -32 Q_N
FLAG 3248 -32 Q_P
FLAG 2688 -32 Q_N
FLAG 3376 -32 Q_P
FLAG 2880 544 0
FLAG 3152 384 Vtrig_p
FLAG 2672 160 Vcc
FLAG 2816 592 Vcc
FLAG 2528 800 Q_N
FLAG 2768 64 Vcc
FLAG 2208 0 0
FLAG 2352 112 0
FLAG 2304 -128 nRES
FLAG 3408 64 Vcc
FLAG 2528 464 CLK
FLAG 2304 -352 CLK
SYMBOL res 2752 640 R0
SYMATTR InstName R3
SYMATTR Value 3K4
SYMBOL res 2992 640 R0
SYMATTR InstName R4
SYMATTR Value 1K8
SYMBOL diode 2720 784 R90
WINDOW 0 0 32 VBottom 2
WINDOW 3 32 32 VTop 2
SYMATTR InstName D4
SYMATTR Value BAW56HY
SYMBOL LED 2832 912 R270
WINDOW 0 72 32 VTop 2
WINDOW 3 0 32 VBottom 2
SYMATTR InstName D8
SYMATTR Value NSPW500BS
SYMBOL npn 2944 848 R0
SYMATTR InstName Q2
SYMATTR Value 2N2369
SYMBOL voltage 2336 -576 R0
WINDOW 123 0 0 Left 0
WINDOW 39 0 0 Left 0
SYMATTR InstName V1
SYMATTR Value 5
SYMBOL voltage 2208 -336 R0
WINDOW 3 -451 8 Left 2
WINDOW 123 0 0 Left 0
WINDOW 39 0 0 Left 0
SYMATTR Value PULSE(0 5 25u 7n 7n 250n 500n 0)
SYMATTR InstName V2
SYMBOL cap 2192 -544 R0
SYMATTR InstName C1
SYMATTR Value 22µ
SYMBOL res 3376 640 R0
SYMATTR InstName R5
SYMATTR Value 3K4
SYMBOL res 3616 640 R0
SYMATTR InstName R6
SYMATTR Value 1K8
SYMBOL diode 3344 784 R90
WINDOW 0 0 32 VBottom 2
WINDOW 3 32 32 VTop 2
SYMATTR InstName D9
SYMATTR Value BAW56HY
SYMBOL LED 3456 912 R270
WINDOW 0 72 32 VTop 2
WINDOW 3 0 32 VBottom 2
SYMATTR InstName D12
SYMATTR Value NSPW500BS
SYMBOL npn 3568 848 R0
SYMATTR InstName Q3
SYMATTR Value 2N2369
SYMBOL res 3152 -192 R0
SYMATTR InstName R8
SYMATTR Value 1800
SYMBOL LED 2992 80 R270
WINDOW 0 72 32 VTop 2
WINDOW 3 0 32 VBottom 2
SYMATTR InstName D16
SYMATTR Value NSPW500BS
SYMBOL npn 3104 16 R0
SYMATTR InstName Q4
SYMATTR Value 2N2369
SYMBOL res 3776 -192 R0
SYMATTR InstName R10
SYMATTR Value 1800
SYMBOL LED 3616 80 R270
WINDOW 0 72 32 VTop 2
WINDOW 3 0 32 VBottom 2
SYMATTR InstName D20
SYMATTR Value NSPW500BS
SYMBOL npn 3728 16 R0
SYMATTR InstName Q5
SYMATTR Value 2N2369
SYMBOL res 2624 208 R0
SYMATTR InstName R27
SYMATTR Value 3K4
SYMBOL res 2864 208 R0
SYMATTR InstName R28
SYMATTR Value 1k8
SYMBOL LED 2704 480 R270
WINDOW 0 72 32 VTop 2
WINDOW 3 0 32 VBottom 2
SYMATTR InstName D27
SYMATTR Value NSPW500BS
SYMBOL npn 2816 416 R0
SYMATTR InstName Q8
SYMATTR Value 2N2369
SYMBOL diode 2640 448 R90
WINDOW 0 0 32 VBottom 2
WINDOW 3 32 32 VTop 2
SYMATTR InstName D28
SYMATTR Value BZX84B10VLY
SYMBOL cap 3328 304 R90
WINDOW 0 0 32 VBottom 2
WINDOW 3 32 32 VTop 2
SYMATTR InstName C5
SYMATTR Value 100p
SYMBOL cap 3632 304 R90
WINDOW 0 0 32 VBottom 2
WINDOW 3 32 32 VTop 2
SYMATTR InstName C6
SYMATTR Value 100p
SYMBOL diode 3040 256 R0
WINDOW 3 50 35 Left 2
SYMATTR InstName D15
SYMATTR Value BAW56HY
SYMBOL diode 3680 256 R0
WINDOW 3 39 30 Left 2
SYMATTR InstName D19
SYMATTR Value BAW56HY
SYMBOL res 3040 128 R0
SYMATTR InstName R1
SYMATTR Value 82
SYMBOL res 3680 112 R0
SYMATTR InstName R2
SYMATTR Value 82
SYMBOL voltage 2208 -128 R0
WINDOW 3 -427 46 Left 2
WINDOW 123 0 0 Left 0
WINDOW 39 0 0 Left 0
SYMATTR Value PULSE(0 5 0 7n 7n 20u 40u 0)
SYMATTR InstName V3
SYMBOL res 2336 -128 R0
SYMATTR InstName R15
SYMATTR Value 3K4
SYMBOL res 2336 -16 R0
SYMATTR InstName R16
SYMATTR Value 3K4
SYMBOL diode 2880 48 R90
WINDOW 0 0 32 VBottom 2
WINDOW 3 32 32 VTop 2
SYMATTR InstName D1
SYMATTR Value 1N4148
SYMBOL diode 3504 48 R90
WINDOW 0 0 32 VBottom 2
WINDOW 3 32 32 VTop 2
SYMATTR InstName D2
SYMATTR Value 1N4148
SYMBOL res 2896 -48 R90
WINDOW 0 0 56 VBottom 2
WINDOW 3 32 56 VTop 2
SYMATTR InstName R17
SYMATTR Value 1800
SYMBOL res 3552 -48 R90
WINDOW 0 0 56 VBottom 2
WINDOW 3 32 56 VTop 2
SYMATTR InstName R18
SYMATTR Value 1800
TEXT 2208 464 Left 2 !;.dc SET_1\n.tran 100u startup
